/*--------------------------------*- C++ -*----------------------------------*\
| =========                 |                                                 |
| \\      /  F ield         | foam-extend: Open Source CFD                    |
|  \\    /   O peration     | Version:     4.0                                |
|   \\  /    A nd           | Web:         http://www.extend-project.de       |
|    \\/     M anipulation  |                                                 |
\*---------------------------------------------------------------------------*/
FoamFile
{
    version     2.0;
    format      ascii;
    class       dictionary;
    object      controlDict;
}
// * * * * * * * * * * * * * * * * * * * * * * * * * * * * * * * * * * * * * //

application     rheoEFoam;

startFrom       startTime;

startTime       0;

stopAt          endTime;

endTime         9.49e-5;

deltaT          1e-8;  

writeControl    runTime;

writeInterval   9.49e-6;

purgeWrite      0;

writeFormat     binary;

writePrecision  12;

writeCompression yes;

timeFormat      general;

timePrecision   10;

graphFormat     raw;

runTimeModifiable yes;

adjustTimeStep off;

maxCo          0.1;

maxDeltaT      0.01;

functions
{
}

// ************************************************************************* //
