/*--------------------------------*- C++ -*----------------------------------*\
| =========                 |                                                 |
| \\      /  F ield         | foam-extend: Open Source CFD                    |
|  \\    /   O peration     | Version:     4.0                                |
|   \\  /    A nd           | Web:         http://www.foam-extend.org         |
|    \\/     M anipulation  |                                                 |
\*---------------------------------------------------------------------------*/
FoamFile
{
    version     2.0;
    format      ascii;
    class       polyBoundaryMesh;
    location    "constant/polyMesh";
    object      boundary;
}
// * * * * * * * * * * * * * * * * * * * * * * * * * * * * * * * * * * * * * //

6
(
    periodicX_half0
    {
        type            wall;
        nFaces          1225;
        startFace       124950;
    }
    periodicX_half1
    {
        type            wall;
        nFaces          1225;
        startFace       126175;
    }
    periodicY_half0
    {
        type            wall;
        nFaces          1225;
        startFace       127400;
    }
    periodicY_half1
    {
        type            wall;
        nFaces          1225;
        startFace       128625;
    }
    periodicZ_half0
    {
        type            wall;
        nFaces          1225;
        startFace       129850;
    }
    periodicZ_half1
    {
        type            wall;
        nFaces          1225;
        startFace       131075;
    }
)


// ************************************************************************* //
